test/data/pf_comparison/pf_yd_xfmr.dss
! Wye-delta (Yd) three-phase transformer power-flow comparison case.
! (BMOPF subtype: wye_delta)
!
! Topology: hv ──[Yd xfmr, 11 kV wye / 0.415 kV delta]── lv
!   hv.1/2/3/4  = HV wye phases and neutral
!   lv.1/2/3    = LV delta terminals
!
! Design intent for high-confidence cross-validation:
!
!   (a) Series impedance is load-bearing:
!       %r=1.0 per winding, xhl=4.0% → at 75% rated load the HV-winding
!       series drop is ≈ (0.01+j0.04)×0.75×242 Ω × I, giving several volts
!       on the LV side — well above the 0.1 V comparison tolerance.
!
!   (b) No-load shunt is exercised:
!       %noloadloss=0.3 %imag=1.5 → core loss ≈ 1.5 kW, magnetising
!       current ≈ 7.5 A (HV), both visible in the KCL balance.
!
!   (c) Load unbalance is large enough to expose per-phase constraint errors:
!       Loads in ratio 3:1:2 across the three delta phases → inter-phase
!       LV voltage spread of several volts.  A wrong sign on any one phase
!       in the Yd voltage loop would shift that phase by >1 V (detectable).
!
!   (d) LV delta bus anchored by a near-solid ground (R=0.001 Ω, G≈1000 S)
!       at lv.1 so that phase-to-earth voltages are deterministic in both
!       ODS and BMOPF.  R=0.001 is negligible relative to load impedance
!       (≈0.96 mΩ) so power flow is not materially affected.
!
! Total load ≈ 360 kW + 120 kvar.

Clear

! Base frequency locked to 50 Hz (BMOPF's modelling frequency).  The OpenDSS
! default (60 Hz, or whatever a Windows GUI session persisted) would otherwise
! rescale every reactance.  See docs/src/validation.md.
Set DefaultBaseFreq=50

New Circuit.pf_yd_xfmr basekv=11.0 pu=1.0 angle=0 phases=3 bus1=hv.1.2.3 model=ideal

! HV wye neutral earthed via near-zero reactor.
New Reactor.grnd_hv bus1=hv.4 bus2=hv.0 R=0.001 X=0

! 2-winding WYE-DELTA transformer with realistic losses.
New Transformer.t1 phases=3 windings=2
~ wdg=1 bus=hv.1.2.3.4 conn=wye   kv=11.0  %r=1.0 kva=500
~ wdg=2 bus=lv.1.2.3   conn=delta kv=0.415 %r=1.0 kva=500
~ xhl=4.0
~ %noloadloss=0.3
~ %imag=1.5

! Near-solid grounding on lv.1 to anchor the delta common mode.
! R=0.001 Ω → G≈1000 S (mirrored in BMOPF as grnd_lv shunt G=1000 S).
New Reactor.grnd_lv bus1=lv.1 bus2=lv.0 R=0.001 X=0

! Unbalanced delta loads (3:1:2 ratio) to make per-phase voltages distinct.
! Vminpu=0 Vmaxpu=2: disable ODS voltage-dependent load switching so model=1
! behaves as strict constant P+Q at all voltages, matching BMOPF.
New Load.ld1 bus1=lv.1.2 kv=0.415 kw=180 kvar=60 phases=1 model=1 Vminpu=0 Vmaxpu=2
New Load.ld2 bus1=lv.2.3 kv=0.415 kw=60  kvar=20 phases=1 model=1 Vminpu=0 Vmaxpu=2
New Load.ld3 bus1=lv.3.1 kv=0.415 kw=120 kvar=40 phases=1 model=1 Vminpu=0 Vmaxpu=2

Set VoltageBases=[11.0, 0.415]
CalcVoltageBases
! Tolerance 1e-8 (<< the voltage-comparison tolerance) removes OpenDSS-side
! convergence slop; MaxIterations raised so the tighter target is reached.
Set Tolerance=1e-8
Set MaxIterations=100
Solve
